/*--------------------------------*- C++ -*----------------------------------*\
  =========                 |
  \\      /  F ield         | OpenFOAM: The Open Source CFD Toolbox
   \\    /   O peration     | Website:  https://openfoam.org
    \\  /    A nd           | Version:  8
     \\/     M anipulation  |
\*---------------------------------------------------------------------------*/
FoamFile
{
    version     2.0;
    format      ascii;
    class       dictionary;
    location    "system";
    object      controlDict;
}
// * * * * * * * * * * * * * * * * * * * * * * * * * * * * * * * * * * * * * //

application     pisoFoam;

startFrom       startTime;

startTime       0;

stopAt          endTime;

endTime         50;

deltaT          0.001;

writeControl    adjustableRunTime;

writeInterval   0.01;

purgeWrite      0;

writeFormat     ascii;

writePrecision  6;

writeCompression off;

timeFormat      general;

timePrecision   6;

runTimeModifiable true;

adjustTimeStep  on;

maxCo           0.5;


// 添加 functionObjects
functions
{
    // 计算平均流速和波动平方平均值
    fieldAverage
    {
        type            fieldAverage;
        libs            ("libfieldFunctionObjects.so");
        enabled         true;
        writeControl    adjustableRunTime;
        writeInterval   0.01;  // 设定输出间隔
        fields
        (
            U
            {
                mean        on;
                prime2Mean  on;
                base        time;
            }
        );
    }

    // 计算涡量
    vorticity
    {
        type            vorticity;
        libs            ("libfieldFunctionObjects.so");
        enabled         true;
        writeControl    adjustableRunTime;
        writeInterval   0.01;  // 设定输出间隔
        U               U;
    }

}

// ************************************************************************* //
